Questionable use of curly braces in ".model sir870adp vdmos(rg=3 vto=2.9 rd=3.2m rs=1.5m rb={m} kp=100 mtriode=1.85 cgdmax=1.4n cgdmin=70p cgs=2.9n cjo=3.6n m=.4 a=.7 vj=.7 lambda=20m is=3p ksubthres=.08 mfg=siliconix vds=100 ron=5.5m qg=53.5n)"
    Error: undefined symbol in: "[m]"
Circuit: * D:\LTSpice\SRAM 6T.asc

Limiting rise time of source v§bit to 2.5e-009
Limiting fall time of source v§bit to 2.5e-009
Limiting rise time of source v§bitbar to 2.5e-009
Limiting fall time of source v§bitbar to 2.5e-009
Direct Newton iteration for .op point succeeded.

Date: Sat Sep 24 19:44:46 2022
Total elapsed time: 0.095 seconds.

tnom = 27
temp = 27
method = modified trap
totiter = 2399
traniter = 2388
tranpoints = 1158
accept = 1131
rejected = 27
matrix size = 12
fillins = 0
solver = Normal
Matrix Compiler1: 446 bytes object code size  0.2/0.1/[0.1]
Matrix Compiler2: 948 bytes object code size  0.1/0.1/[0.1]


